/*--------------------------------*- C++ -*----------------------------------*\
  =========                 |				
  \\      /  F ield         | OpenFOAM: The Open Source CFD Toolbox
   \\    /   O peration     | Website:  https://openfoam.org
    \\  /    A nd           | Version:  9                                   	
     \\/     M anipulation  |
\*---------------------------------------------------------------------------*/
FoamFile
{
    format      ascii;
    class       dictionary;
    object      setFieldsDict;
}
// * * * * * * * * * * * * * * * * * * * * * * * * * * * * * * * * * * * * * //

defaultFieldValues
(
    volScalarFieldValue zoneID 123
);

regions
(
    // Set cell values
    // (does zerogradient on boundaries)
    cellToCell
    {
        set c0;

        fieldValues
        (
            volScalarFieldValue zoneID 0
        );
    }

    cellToCell
    {
        set c1;

        fieldValues
        (
            volScalarFieldValue zoneID 1
        );
    }

);

// ************************************************************************* //
