/*--------------------------------*- C++ -*----------------------------------*\
  =========                 |				
  \\      /  F ield         | OpenFOAM: The Open Source CFD Toolbox
   \\    /   O peration     | Website:  https://openfoam.org
    \\  /    A nd           | Version:  9                                   	
     \\/     M anipulation  |
\*---------------------------------------------------------------------------*/
FoamFile
{
    format      ascii;
    class       dictionary;
    object      blockMeshDict;
}
// * * * * * * * * * * * * * * * * * * * * * * * * * * * * * * * * * * * * * //

scale   1;

vertices
(
    (-0.5 -0.5 -0.5)
    ( 1.5 -0.5 -0.5)
    ( 1.5  0.5 -0.5)
    (-0.5  0.5 -0.5)
    (-0.5 -0.5  0.5)
    ( 1.5 -0.5  0.5)
    ( 1.5  0.5  0.5)
    (-0.5  0.5  0.5)
);

blocks
(
    hex (0 1 2 3 4 5 6 7) (40 20 1) simpleGrading (1 1 1)
);

edges
(
);

boundary
(
    overset
    {
        type overset;
        faces
        (
            (3 7 6 2)
            (1 5 4 0)
            (0 4 7 3)
            (2 6 5 1)
        );
    }

    symFront
    {
        type symmetryPlane;
        faces
        (
            (4 5 6 7)
        );
    }

    symBack
    {
        type symmetryPlane;
        faces
        (
            (0 3 2 1)
        );
    }
);

mergePatchPairs
(
);

// ************************************************************************* //
